/*--------------------------------*- C++ -*----------------------------------*\
  =========                 |
  \\      /  F ield         | OpenFOAM: The Open Source CFD Toolbox
   \\    /   O peration     | Website:  https://openfoam.org
    \\  /    A nd           | Version:  8
     \\/     M anipulation  |
\*---------------------------------------------------------------------------*/
FoamFile
{
    version     2.0;
    format      ascii;
    class       volVectorField;
    object      U;
}
// * * * * * * * * * * * * * * * * * * * * * * * * * * * * * * * * * * * * * //

dimensions      [0 1 -1 0 0 0 0];

internalField   uniform (0 0 0);

boundaryField
{
    inlet
    {
        type            codedFixedValue;
        value           uniform (0 0 0);
        name            uMine;
        code
        #{
            const vectorField Cf = patch().Cf();
            vectorField uMine(Cf.size());
            forAll(Cf,faceI)
            {
                uMine[faceI] = vector(0, pow(Cf[faceI].x(), 2)
                       - 0.1*Cf[faceI].x(), 0);
            }
            operator==(uMine);

         #};
     }

    outlet
    {
        type            zeroGradient;
    }

    fixedWalls
    {
        type            zeroGradient;
    }

    frontAndBack
    {
        type            empty;
    }
}

// ************************************************************************* //
